$ AeroFrame-DT cantilever verification deck
$ SI units: N, m, Pa, kg
SOL 101
CEND
TITLE = AFDT CANTILEVER BENCHMARK
SUBCASE 1
  SPC = 1
  LOAD = 1
  DISPLACEMENT(PLOT,PRINT) = ALL
  SPCFORCES(PRINT) = ALL
  FORCE(PRINT) = ALL
BEGIN BULK
PARAM,POST,-1
MAT1,1,7.000000000E+10,,0.33000000,2.800000000E+03
PBEAM,1,1,3.200000000E-03,4.266666667E-07,1.706666667E-06,2.133333333E-06
GRID,1,,0.000000000E+00,0.,0.
GRID,2,,5.000000000E-02,0.,0.
GRID,3,,1.000000000E-01,0.,0.
GRID,4,,1.500000000E-01,0.,0.
GRID,5,,2.000000000E-01,0.,0.
GRID,6,,2.500000000E-01,0.,0.
GRID,7,,3.000000000E-01,0.,0.
GRID,8,,3.500000000E-01,0.,0.
GRID,9,,4.000000000E-01,0.,0.
GRID,10,,4.500000000E-01,0.,0.
GRID,11,,5.000000000E-01,0.,0.
GRID,12,,5.500000000E-01,0.,0.
GRID,13,,6.000000000E-01,0.,0.
GRID,14,,6.500000000E-01,0.,0.
GRID,15,,7.000000000E-01,0.,0.
GRID,16,,7.500000000E-01,0.,0.
GRID,17,,8.000000000E-01,0.,0.
GRID,18,,8.500000000E-01,0.,0.
GRID,19,,9.000000000E-01,0.,0.
GRID,20,,9.500000000E-01,0.,0.
GRID,21,,1.000000000E+00,0.,0.
CBEAM,1,1,1,2,0.,1.,0.
CBEAM,2,1,2,3,0.,1.,0.
CBEAM,3,1,3,4,0.,1.,0.
CBEAM,4,1,4,5,0.,1.,0.
CBEAM,5,1,5,6,0.,1.,0.
CBEAM,6,1,6,7,0.,1.,0.
CBEAM,7,1,7,8,0.,1.,0.
CBEAM,8,1,8,9,0.,1.,0.
CBEAM,9,1,9,10,0.,1.,0.
CBEAM,10,1,10,11,0.,1.,0.
CBEAM,11,1,11,12,0.,1.,0.
CBEAM,12,1,12,13,0.,1.,0.
CBEAM,13,1,13,14,0.,1.,0.
CBEAM,14,1,14,15,0.,1.,0.
CBEAM,15,1,15,16,0.,1.,0.
CBEAM,16,1,16,17,0.,1.,0.
CBEAM,17,1,17,18,0.,1.,0.
CBEAM,18,1,18,19,0.,1.,0.
CBEAM,19,1,19,20,0.,1.,0.
CBEAM,20,1,20,21,0.,1.,0.
SPC1,1,123456,1
FORCE,1,21,0,1.000000000E+03,0.,0.,-1.
ENDDATA
