$ AeroFrame-DT CQUAD4 constant-strain patch
SOL 101
CEND
TITLE = AFDT CONSTANT STRAIN PATCH
SUBCASE 1
 SPC = 1
 DISPLACEMENT(PRINT) = ALL
 STRESS(PRINT) = ALL
 SPCFORCES(PRINT) = ALL
BEGIN BULK
MAT1,1,7.000000000E+10,,0.33000000
PSHELL,1,1,1.000000000E-02
GRID,1,,0.,0.,0.
GRID,2,,1.,0.,0.
GRID,3,,1.,1.,0.
GRID,4,,0.,1.,0.
CQUAD4,1,1,1,2,3,4
SPC1,1,23456,1,THRU,4
SPC1,1,1,1,4
SPCD,1,2,1,1.000000000E-03
SPCD,1,3,1,1.000000000E-03
LOAD,1,1.,1.,1
ENDDATA
